OPT_V9/My_campus_w_initial_sub_3_active_25_03_11_44/powerflow_results_t18.txt
Pandapower Network Debug Info
==================================================

BUS:
       vm_pu  va_degree      p_mw    q_mvar
0   0.997867   0.070861 -0.000382 -0.000448
1   0.996526   0.125528  0.000022  0.000521
2   0.994866   0.183022  0.000602  0.001569
3   0.995917   0.115792  0.001242  0.002136
4   0.992449   0.279197  0.001556  0.004545
5   0.997039   0.106655  0.001191  0.003573
6   0.997390   0.092437 -0.000112 -0.000371
7   0.999106   0.004758  0.000618  0.000569
8   0.998709   0.044900  0.000301  0.001314
9   0.999916   0.000703  0.006650  0.008552
10  0.999905   0.000734  0.009807  0.008116
11  0.999897   0.000765  0.009188  0.008270
12  0.999819   0.001326  0.009973  0.004602
13  0.999802   0.001523  0.010788  0.009463
14  0.999791   0.001614  0.011995  0.012597
15  0.999951   0.000484  0.000000  0.000000
16  0.999951   0.000486  0.000000  0.000000
17  0.999824   0.001388  0.000000  0.000000
18  0.999824   0.001394  0.000000  0.000000
19  1.000000   0.000000 -0.027170 -0.033732
20  1.000000   0.000005  0.000000  0.000000
21  1.000000   0.000000 -0.036384 -0.041332
22  1.000000   0.000006  0.000000  0.000000
--------------------------------------------------

LINE:
    p_from_mw  q_from_mvar   p_to_mw  q_to_mvar         pl_mw       ql_mvar  i_from_ka   i_to_ka      i_ka  vm_from_pu  va_from_degree  vm_to_pu  va_to_degree  loading_percent
0    0.027160     0.029732 -0.027158  -0.029731  1.586183e-06  1.236773e-06   0.001550  0.001550  0.001550    1.000000        0.000005  0.999951      0.000484         0.673904
1    0.036374     0.037332 -0.036367  -0.037326  7.307695e-06  5.697930e-06   0.002006  0.002006  0.002006    1.000000        0.000006  0.999824      0.001388         0.872258
2    0.025647     0.024940 -0.025646  -0.024939  9.897208e-07  7.717016e-07   0.001377  0.001377  0.001377    0.999951        0.000484  0.999916      0.000703         0.598698
3    0.009973     0.004602 -0.009973  -0.004602  4.173369e-08  3.254044e-08   0.000423  0.000423  0.000423    0.999824        0.001388  0.999819      0.001326         0.183839
4    0.022784     0.022061 -0.022784  -0.022060  5.501576e-07  4.289670e-07   0.001221  0.001221  0.001221    0.999824        0.001388  0.999802      0.001523         0.530826
5    0.001501     0.003791 -0.001493  -0.003785  7.776329e-06  6.063332e-06   0.005885  0.005885  0.005885    0.999951        0.000486  0.997867      0.070861         2.558855
6    0.001088     0.003209 -0.001079  -0.003202  8.912149e-06  6.948950e-06   0.004892  0.004892  0.004892    0.999824        0.001394  0.997039      0.106655         2.126978
7    0.000619     0.000569 -0.000618  -0.000569  4.775176e-07  3.723284e-07   0.001213  0.001213  0.001213    0.999824        0.001394  0.999106      0.004758         0.527593
8    0.001893     0.005886 -0.001886  -0.005880  6.574043e-06  5.125890e-06   0.008925  0.008925  0.008925    0.999824        0.001394  0.998709      0.044900         3.880454
9   -0.018995    -0.016387  0.018995   0.016387  2.176833e-07  1.697312e-07   0.000966  0.000966  0.000966    0.999905        0.000734  0.999916      0.000703         0.419862
10  -0.009188    -0.008270  0.009188   0.008271  7.475242e-08  5.828570e-08   0.000476  0.000476  0.000476    0.999897        0.000765  0.999905      0.000734         0.206894
11  -0.011995    -0.012597  0.011995   0.012597  1.480420e-07  1.154308e-07   0.000670  0.000670  0.000670    0.999791        0.001614  0.999802      0.001523         0.291158
12  -0.000626    -0.002092  0.000629   0.002094  2.840155e-06  2.214516e-06   0.003162  0.003162  0.003162    0.996526        0.125528  0.997867      0.070861         1.374989
13  -0.001242    -0.002136  0.001246   0.002139  4.109621e-06  3.204339e-06   0.003581  0.003581  0.003581    0.995917        0.115792  0.997867      0.070861         1.556922
14  -0.000602    -0.001569  0.000604   0.001571  2.580659e-06  2.012182e-06   0.002438  0.002438  0.002438    0.994866        0.183022  0.996526      0.125528         1.059961
15   0.001585     0.004567 -0.001556  -0.004545  2.850581e-05  2.222645e-05   0.006986  0.006986  0.006986    0.998709        0.044900  0.992449      0.279197         3.037504
16   0.000112     0.000371 -0.000112  -0.000371  1.313997e-07  1.024545e-07   0.000561  0.000561  0.000561    0.997390        0.092437  0.997039      0.106655         0.243800
--------------------------------------------------

TRAFO:
    p_hv_mw  q_hv_mvar   p_lv_mw  q_lv_mvar    pl_mw  ql_mvar   i_hv_ka   i_lv_ka  vm_hv_pu  va_hv_degree  vm_lv_pu  va_lv_degree  loading_percent
0  0.001511   0.004791 -0.001501  -0.003791  0.00001    0.001  0.000193  0.005885  0.999951      0.000484  0.999951      0.000486         0.050237
1  0.003610   0.010663 -0.003600  -0.009664  0.00001    0.001  0.000433  0.014887  0.999824      0.001388  0.999824      0.001394         0.112598
2  0.027170   0.033732 -0.027160  -0.029732  0.00001    0.004  0.000357  0.001550  1.000000      0.000000  1.000000      0.000005         0.108283
3  0.036384   0.041332 -0.036374  -0.037332  0.00001    0.004  0.000454  0.002006  1.000000      0.000000  1.000000      0.000006         0.137662
--------------------------------------------------
